/*--------------------------------*- C++ -*----------------------------------*\
  =========                 |
  \\      /  F ield         | OpenFOAM: The Open Source CFD Toolbox
   \\    /   O peration     | Website:  https://openfoam.org
    \\  /    A nd           | Version:  9
     \\/     M anipulation  |
\*---------------------------------------------------------------------------*/
FoamFile
{
    format      ascii;
    class       featureEdgeMesh;
    location    "constant/geometry";
    object      cyl2_patched.eMesh;
}
// * * * * * * * * * * * * * * * * * * * * * * * * * * * * * * * * * * * * * //


// points:

664
(
(-0.400179 2.5 2.40108)
(-0.4 2.5 2.42)
(-0.4 -2.5 2.42)
(-0.400179 -2.5 2.40108)
(-0.400716 2.5 2.38216)
(-0.400716 -2.5 2.38216)
(-0.401611 2.5 2.36325)
(-0.401611 -2.5 2.36325)
(-0.402864 2.5 2.34437)
(-0.402864 -2.5 2.34437)
(-0.404474 2.5 2.32551)
(-0.404474 -2.5 2.32551)
(-0.40644 2.5 2.30669)
(-0.40644 -2.5 2.30669)
(-0.408762 2.5 2.28791)
(-0.408762 -2.5 2.28791)
(-0.411439 2.5 2.26918)
(-0.411439 -2.5 2.26918)
(-0.414471 2.5 2.25049)
(-0.414471 -2.5 2.25049)
(-0.417855 2.5 2.23188)
(-0.417855 -2.5 2.23188)
(-0.421591 2.5 2.21332)
(-0.421591 -2.5 2.21332)
(-0.425677 2.5 2.19484)
(-0.425677 -2.5 2.19484)
(-0.430113 2.5 2.17645)
(-0.430113 -2.5 2.17645)
(-0.434895 2.5 2.15814)
(-0.434895 -2.5 2.15814)
(-0.440024 2.5 2.13992)
(-0.440024 -2.5 2.13992)
(-0.445496 2.5 2.1218)
(-0.445496 -2.5 2.1218)
(-0.45131 2.5 2.10379)
(-0.45131 -2.5 2.10379)
(-0.457464 2.5 2.0859)
(-0.457464 -2.5 2.0859)
(-0.463955 2.5 2.06812)
(-0.463955 -2.5 2.06812)
(-0.470782 2.5 2.05047)
(-0.470782 -2.5 2.05047)
(-0.477941 2.5 2.03295)
(-0.477941 -2.5 2.03295)
(-0.485431 2.5 2.01557)
(-0.485431 -2.5 2.01557)
(-0.493248 2.5 1.99833)
(-0.493248 -2.5 1.99833)
(-0.50139 2.5 1.98125)
(-0.50139 -2.5 1.98125)
(-0.509854 2.5 1.96432)
(-0.509854 -2.5 1.96432)
(-0.518637 2.5 1.94756)
(-0.518637 -2.5 1.94756)
(-0.527735 2.5 1.93097)
(-0.527735 -2.5 1.93097)
(-0.537146 2.5 1.91455)
(-0.537146 -2.5 1.91455)
(-0.546866 2.5 1.89831)
(-0.546866 -2.5 1.89831)
(-0.556891 2.5 1.88226)
(-0.556891 -2.5 1.88226)
(-0.567218 2.5 1.8664)
(-0.567218 -2.5 1.8664)
(-0.577844 2.5 1.85074)
(-0.577844 -2.5 1.85074)
(-0.588764 2.5 1.83528)
(-0.588764 -2.5 1.83528)
(-0.599975 2.5 1.82003)
(-0.599975 -2.5 1.82003)
(-0.611472 2.5 1.805)
(-0.611472 -2.5 1.805)
(-0.623251 2.5 1.79019)
(-0.623251 -2.5 1.79019)
(-0.635309 2.5 1.7756)
(-0.635309 -2.5 1.7756)
(-0.647641 2.5 1.76125)
(-0.647641 -2.5 1.76125)
(-0.660242 2.5 1.74713)
(-0.660242 -2.5 1.74713)
(-0.673108 2.5 1.73325)
(-0.673108 -2.5 1.73325)
(-0.686234 2.5 1.71962)
(-0.686234 -2.5 1.71962)
(-0.699616 2.5 1.70623)
(-0.699616 -2.5 1.70623)
(-0.713249 2.5 1.69311)
(-0.713249 -2.5 1.69311)
(-0.727127 2.5 1.68024)
(-0.727127 -2.5 1.68024)
(-0.741247 2.5 1.66764)
(-0.741247 -2.5 1.66764)
(-0.755603 2.5 1.65531)
(-0.755603 -2.5 1.65531)
(-0.770189 2.5 1.64325)
(-0.770189 -2.5 1.64325)
(-0.785002 2.5 1.63147)
(-0.785002 -2.5 1.63147)
(-0.800034 2.5 1.61997)
(-0.800034 -2.5 1.61997)
(-0.815281 2.5 1.60876)
(-0.815281 -2.5 1.60876)
(-0.830738 2.5 1.59784)
(-0.830738 -2.5 1.59784)
(-0.846398 2.5 1.58722)
(-0.846398 -2.5 1.58722)
(-0.862257 2.5 1.57689)
(-0.862257 -2.5 1.57689)
(-0.878308 2.5 1.56687)
(-0.878308 -2.5 1.56687)
(-0.894547 2.5 1.55715)
(-0.894547 -2.5 1.55715)
(-0.910966 2.5 1.54774)
(-0.910966 -2.5 1.54774)
(-0.92756 2.5 1.53864)
(-0.92756 -2.5 1.53864)
(-0.944324 2.5 1.52985)
(-0.944324 -2.5 1.52985)
(-0.961251 2.5 1.52139)
(-0.961251 -2.5 1.52139)
(-0.978335 2.5 1.51325)
(-0.978335 -2.5 1.51325)
(-0.99557 2.5 1.50543)
(-0.99557 -2.5 1.50543)
(-1.01295 2.5 1.49794)
(-1.01295 -2.5 1.49794)
(-1.03047 2.5 1.49078)
(-1.03047 -2.5 1.49078)
(-1.04812 2.5 1.48396)
(-1.04812 -2.5 1.48396)
(-1.0659 2.5 1.47746)
(-1.0659 -2.5 1.47746)
(-1.08379 2.5 1.47131)
(-1.08379 -2.5 1.47131)
(-1.1018 2.5 1.4655)
(-1.1018 -2.5 1.4655)
(-1.11992 2.5 1.46002)
(-1.11992 -2.5 1.46002)
(-1.13814 2.5 1.4549)
(-1.13814 -2.5 1.4549)
(-1.15645 2.5 1.45011)
(-1.15645 -2.5 1.45011)
(-1.17484 2.5 1.44568)
(-1.17484 -2.5 1.44568)
(-1.19332 2.5 1.44159)
(-1.19332 -2.5 1.44159)
(-1.21188 2.5 1.43785)
(-1.21188 -2.5 1.43785)
(-1.2305 2.5 1.43447)
(-1.2305 -2.5 1.43447)
(-1.24918 2.5 1.43144)
(-1.24918 -2.5 1.43144)
(-1.26791 2.5 1.42876)
(-1.26791 -2.5 1.42876)
(-1.28669 2.5 1.42644)
(-1.28669 -2.5 1.42644)
(-1.30551 2.5 1.42447)
(-1.30551 -2.5 1.42447)
(-1.32437 2.5 1.42286)
(-1.32437 -2.5 1.42286)
(-1.34325 2.5 1.42161)
(-1.34325 -2.5 1.42161)
(-1.36216 2.5 1.42072)
(-1.36216 -2.5 1.42072)
(-1.38108 2.5 1.42018)
(-1.38108 -2.5 1.42018)
(-1.4 2.5 1.42)
(-1.4 -2.5 1.42)
(-1.41892 2.5 1.42018)
(-1.41892 -2.5 1.42018)
(-1.43784 2.5 1.42072)
(-1.43784 -2.5 1.42072)
(-1.45675 2.5 1.42161)
(-1.45675 -2.5 1.42161)
(-1.47563 2.5 1.42286)
(-1.47563 -2.5 1.42286)
(-1.49449 2.5 1.42447)
(-1.49449 -2.5 1.42447)
(-1.51331 2.5 1.42644)
(-1.51331 -2.5 1.42644)
(-1.53209 2.5 1.42876)
(-1.53209 -2.5 1.42876)
(-1.55082 2.5 1.43144)
(-1.55082 -2.5 1.43144)
(-1.5695 2.5 1.43447)
(-1.5695 -2.5 1.43447)
(-1.58812 2.5 1.43785)
(-1.58812 -2.5 1.43785)
(-1.60668 2.5 1.44159)
(-1.60668 -2.5 1.44159)
(-1.62516 2.5 1.44568)
(-1.62516 -2.5 1.44568)
(-1.64355 2.5 1.45011)
(-1.64355 -2.5 1.45011)
(-1.66186 2.5 1.4549)
(-1.66186 -2.5 1.4549)
(-1.68008 2.5 1.46002)
(-1.68008 -2.5 1.46002)
(-1.6982 2.5 1.4655)
(-1.6982 -2.5 1.4655)
(-1.71621 2.5 1.47131)
(-1.71621 -2.5 1.47131)
(-1.7341 2.5 1.47746)
(-1.7341 -2.5 1.47746)
(-1.75188 2.5 1.48396)
(-1.75188 -2.5 1.48396)
(-1.76953 2.5 1.49078)
(-1.76953 -2.5 1.49078)
(-1.78705 2.5 1.49794)
(-1.78705 -2.5 1.49794)
(-1.80443 2.5 1.50543)
(-1.80443 -2.5 1.50543)
(-1.82167 2.5 1.51325)
(-1.82167 -2.5 1.51325)
(-1.83875 2.5 1.52139)
(-1.83875 -2.5 1.52139)
(-1.85568 2.5 1.52985)
(-1.85568 -2.5 1.52985)
(-1.87244 2.5 1.53864)
(-1.87244 -2.5 1.53864)
(-1.88903 2.5 1.54774)
(-1.88903 -2.5 1.54774)
(-1.90545 2.5 1.55715)
(-1.90545 -2.5 1.55715)
(-1.92169 2.5 1.56687)
(-1.92169 -2.5 1.56687)
(-1.93774 2.5 1.57689)
(-1.93774 -2.5 1.57689)
(-1.9536 2.5 1.58722)
(-1.9536 -2.5 1.58722)
(-1.96926 2.5 1.59784)
(-1.96926 -2.5 1.59784)
(-1.98472 2.5 1.60876)
(-1.98472 -2.5 1.60876)
(-1.99997 2.5 1.61997)
(-1.99997 -2.5 1.61997)
(-2.015 2.5 1.63147)
(-2.015 -2.5 1.63147)
(-2.02981 2.5 1.64325)
(-2.02981 -2.5 1.64325)
(-2.0444 2.5 1.65531)
(-2.0444 -2.5 1.65531)
(-2.05875 2.5 1.66764)
(-2.05875 -2.5 1.66764)
(-2.07287 2.5 1.68024)
(-2.07287 -2.5 1.68024)
(-2.08675 2.5 1.69311)
(-2.08675 -2.5 1.69311)
(-2.10038 2.5 1.70623)
(-2.10038 -2.5 1.70623)
(-2.11377 2.5 1.71962)
(-2.11377 -2.5 1.71962)
(-2.12689 2.5 1.73325)
(-2.12689 -2.5 1.73325)
(-2.13976 2.5 1.74713)
(-2.13976 -2.5 1.74713)
(-2.15236 2.5 1.76125)
(-2.15236 -2.5 1.76125)
(-2.16469 2.5 1.7756)
(-2.16469 -2.5 1.7756)
(-2.17675 2.5 1.79019)
(-2.17675 -2.5 1.79019)
(-2.18853 2.5 1.805)
(-2.18853 -2.5 1.805)
(-2.20003 2.5 1.82003)
(-2.20003 -2.5 1.82003)
(-2.21124 2.5 1.83528)
(-2.21124 -2.5 1.83528)
(-2.22216 2.5 1.85074)
(-2.22216 -2.5 1.85074)
(-2.23278 2.5 1.8664)
(-2.23278 -2.5 1.8664)
(-2.24311 2.5 1.88226)
(-2.24311 -2.5 1.88226)
(-2.25313 2.5 1.89831)
(-2.25313 -2.5 1.89831)
(-2.26285 2.5 1.91455)
(-2.26285 -2.5 1.91455)
(-2.27226 2.5 1.93097)
(-2.27226 -2.5 1.93097)
(-2.28136 2.5 1.94756)
(-2.28136 -2.5 1.94756)
(-2.29015 2.5 1.96432)
(-2.29015 -2.5 1.96432)
(-2.29861 2.5 1.98125)
(-2.29861 -2.5 1.98125)
(-2.30675 2.5 1.99833)
(-2.30675 -2.5 1.99833)
(-2.31457 2.5 2.01557)
(-2.31457 -2.5 2.01557)
(-2.32206 2.5 2.03295)
(-2.32206 -2.5 2.03295)
(-2.32922 2.5 2.05047)
(-2.32922 -2.5 2.05047)
(-2.33604 2.5 2.06812)
(-2.33604 -2.5 2.06812)
(-2.34254 2.5 2.0859)
(-2.34254 -2.5 2.0859)
(-2.34869 2.5 2.10379)
(-2.34869 -2.5 2.10379)
(-2.3545 2.5 2.1218)
(-2.3545 -2.5 2.1218)
(-2.35998 2.5 2.13992)
(-2.35998 -2.5 2.13992)
(-2.3651 2.5 2.15814)
(-2.3651 -2.5 2.15814)
(-2.36989 2.5 2.17645)
(-2.36989 -2.5 2.17645)
(-2.37432 2.5 2.19484)
(-2.37432 -2.5 2.19484)
(-2.37841 2.5 2.21332)
(-2.37841 -2.5 2.21332)
(-2.38215 2.5 2.23188)
(-2.38215 -2.5 2.23188)
(-2.38553 2.5 2.25049)
(-2.38553 -2.5 2.25049)
(-2.38856 2.5 2.26918)
(-2.38856 -2.5 2.26918)
(-2.39124 2.5 2.28791)
(-2.39124 -2.5 2.28791)
(-2.39356 2.5 2.30669)
(-2.39356 -2.5 2.30669)
(-2.39553 2.5 2.32551)
(-2.39553 -2.5 2.32551)
(-2.39714 2.5 2.34437)
(-2.39714 -2.5 2.34437)
(-2.39839 2.5 2.36325)
(-2.39839 -2.5 2.36325)
(-2.39928 2.5 2.38216)
(-2.39928 -2.5 2.38216)
(-2.39982 2.5 2.40108)
(-2.39982 -2.5 2.40108)
(-2.4 2.5 2.42)
(-2.4 -2.5 2.42)
(-2.39982 2.5 2.43892)
(-2.39982 -2.5 2.43892)
(-2.39928 2.5 2.45784)
(-2.39928 -2.5 2.45784)
(-2.39839 2.5 2.47675)
(-2.39839 -2.5 2.47675)
(-2.39714 2.5 2.49563)
(-2.39714 -2.5 2.49563)
(-2.39553 2.5 2.51449)
(-2.39553 -2.5 2.51449)
(-2.39356 2.5 2.53331)
(-2.39356 -2.5 2.53331)
(-2.39124 2.5 2.55209)
(-2.39124 -2.5 2.55209)
(-2.38856 2.5 2.57082)
(-2.38856 -2.5 2.57082)
(-2.38553 2.5 2.5895)
(-2.38553 -2.5 2.5895)
(-2.38215 2.5 2.60812)
(-2.38215 -2.5 2.60812)
(-2.37841 2.5 2.62668)
(-2.37841 -2.5 2.62668)
(-2.37432 2.5 2.64516)
(-2.37432 -2.5 2.64516)
(-2.36989 2.5 2.66355)
(-2.36989 -2.5 2.66355)
(-2.3651 2.5 2.68186)
(-2.3651 -2.5 2.68186)
(-2.35998 2.5 2.70008)
(-2.35998 -2.5 2.70008)
(-2.3545 2.5 2.7182)
(-2.3545 -2.5 2.7182)
(-2.34869 2.5 2.73621)
(-2.34869 -2.5 2.73621)
(-2.34254 2.5 2.7541)
(-2.34254 -2.5 2.7541)
(-2.33604 2.5 2.77188)
(-2.33604 -2.5 2.77188)
(-2.32922 2.5 2.78953)
(-2.32922 -2.5 2.78953)
(-2.32206 2.5 2.80705)
(-2.32206 -2.5 2.80705)
(-2.31457 2.5 2.82443)
(-2.31457 -2.5 2.82443)
(-2.30675 2.5 2.84167)
(-2.30675 -2.5 2.84167)
(-2.29861 2.5 2.85875)
(-2.29861 -2.5 2.85875)
(-2.29015 2.5 2.87568)
(-2.29015 -2.5 2.87568)
(-2.28136 2.5 2.89244)
(-2.28136 -2.5 2.89244)
(-2.27226 2.5 2.90903)
(-2.27226 -2.5 2.90903)
(-2.26285 2.5 2.92545)
(-2.26285 -2.5 2.92545)
(-2.25313 2.5 2.94169)
(-2.25313 -2.5 2.94169)
(-2.24311 2.5 2.95774)
(-2.24311 -2.5 2.95774)
(-2.23278 2.5 2.9736)
(-2.23278 -2.5 2.9736)
(-2.22216 2.5 2.98926)
(-2.22216 -2.5 2.98926)
(-2.21124 2.5 3.00472)
(-2.21124 -2.5 3.00472)
(-2.20003 2.5 3.01997)
(-2.20003 -2.5 3.01997)
(-2.18853 2.5 3.035)
(-2.18853 -2.5 3.035)
(-2.17675 2.5 3.04981)
(-2.17675 -2.5 3.04981)
(-2.16469 2.5 3.0644)
(-2.16469 -2.5 3.0644)
(-2.15236 2.5 3.07875)
(-2.15236 -2.5 3.07875)
(-2.13976 2.5 3.09287)
(-2.13976 -2.5 3.09287)
(-2.12689 2.5 3.10675)
(-2.12689 -2.5 3.10675)
(-2.11377 2.5 3.12038)
(-2.11377 -2.5 3.12038)
(-2.10038 2.5 3.13377)
(-2.10038 -2.5 3.13377)
(-2.08675 2.5 3.14689)
(-2.08675 -2.5 3.14689)
(-2.07287 2.5 3.15976)
(-2.07287 -2.5 3.15976)
(-2.05875 2.5 3.17236)
(-2.05875 -2.5 3.17236)
(-2.0444 2.5 3.18469)
(-2.0444 -2.5 3.18469)
(-2.02981 2.5 3.19675)
(-2.02981 -2.5 3.19675)
(-2.015 2.5 3.20853)
(-2.015 -2.5 3.20853)
(-1.99997 2.5 3.22003)
(-1.99997 -2.5 3.22003)
(-1.98472 2.5 3.23124)
(-1.98472 -2.5 3.23124)
(-1.96926 2.5 3.24216)
(-1.96926 -2.5 3.24216)
(-1.9536 2.5 3.25278)
(-1.9536 -2.5 3.25278)
(-1.93774 2.5 3.26311)
(-1.93774 -2.5 3.26311)
(-1.92169 2.5 3.27313)
(-1.92169 -2.5 3.27313)
(-1.90545 2.5 3.28285)
(-1.90545 -2.5 3.28285)
(-1.88903 2.5 3.29226)
(-1.88903 -2.5 3.29226)
(-1.87244 2.5 3.30136)
(-1.87244 -2.5 3.30136)
(-1.85568 2.5 3.31015)
(-1.85568 -2.5 3.31015)
(-1.83875 2.5 3.31861)
(-1.83875 -2.5 3.31861)
(-1.82167 2.5 3.32675)
(-1.82167 -2.5 3.32675)
(-1.80443 2.5 3.33457)
(-1.80443 -2.5 3.33457)
(-1.78705 2.5 3.34206)
(-1.78705 -2.5 3.34206)
(-1.76953 2.5 3.34922)
(-1.76953 -2.5 3.34922)
(-1.75188 2.5 3.35604)
(-1.75188 -2.5 3.35604)
(-1.7341 2.5 3.36254)
(-1.7341 -2.5 3.36254)
(-1.71621 2.5 3.36869)
(-1.71621 -2.5 3.36869)
(-1.6982 2.5 3.3745)
(-1.6982 -2.5 3.3745)
(-1.68008 2.5 3.37998)
(-1.68008 -2.5 3.37998)
(-1.66186 2.5 3.3851)
(-1.66186 -2.5 3.3851)
(-1.64355 2.5 3.38989)
(-1.64355 -2.5 3.38989)
(-1.62516 2.5 3.39432)
(-1.62516 -2.5 3.39432)
(-1.60668 2.5 3.39841)
(-1.60668 -2.5 3.39841)
(-1.58812 2.5 3.40215)
(-1.58812 -2.5 3.40215)
(-1.5695 2.5 3.40553)
(-1.5695 -2.5 3.40553)
(-1.55082 2.5 3.40856)
(-1.55082 -2.5 3.40856)
(-1.53209 2.5 3.41124)
(-1.53209 -2.5 3.41124)
(-1.51331 2.5 3.41356)
(-1.51331 -2.5 3.41356)
(-1.49449 2.5 3.41553)
(-1.49449 -2.5 3.41553)
(-1.47563 2.5 3.41714)
(-1.47563 -2.5 3.41714)
(-1.45675 2.5 3.41839)
(-1.45675 -2.5 3.41839)
(-1.43784 2.5 3.41928)
(-1.43784 -2.5 3.41928)
(-1.41892 2.5 3.41982)
(-1.41892 -2.5 3.41982)
(-1.4 2.5 3.42)
(-1.4 -2.5 3.42)
(-1.38108 2.5 3.41982)
(-1.38108 -2.5 3.41982)
(-1.36216 2.5 3.41928)
(-1.36216 -2.5 3.41928)
(-1.34325 2.5 3.41839)
(-1.34325 -2.5 3.41839)
(-1.32437 2.5 3.41714)
(-1.32437 -2.5 3.41714)
(-1.30551 2.5 3.41553)
(-1.30551 -2.5 3.41553)
(-1.28669 2.5 3.41356)
(-1.28669 -2.5 3.41356)
(-1.26791 2.5 3.41124)
(-1.26791 -2.5 3.41124)
(-1.24918 2.5 3.40856)
(-1.24918 -2.5 3.40856)
(-1.2305 2.5 3.40553)
(-1.2305 -2.5 3.40553)
(-1.21188 2.5 3.40215)
(-1.21188 -2.5 3.40215)
(-1.19332 2.5 3.39841)
(-1.19332 -2.5 3.39841)
(-1.17484 2.5 3.39432)
(-1.17484 -2.5 3.39432)
(-1.15645 2.5 3.38989)
(-1.15645 -2.5 3.38989)
(-1.13814 2.5 3.3851)
(-1.13814 -2.5 3.3851)
(-1.11992 2.5 3.37998)
(-1.11992 -2.5 3.37998)
(-1.1018 2.5 3.3745)
(-1.1018 -2.5 3.3745)
(-1.08379 2.5 3.36869)
(-1.08379 -2.5 3.36869)
(-1.0659 2.5 3.36254)
(-1.0659 -2.5 3.36254)
(-1.04812 2.5 3.35604)
(-1.04812 -2.5 3.35604)
(-1.03047 2.5 3.34922)
(-1.03047 -2.5 3.34922)
(-1.01295 2.5 3.34206)
(-1.01295 -2.5 3.34206)
(-0.99557 2.5 3.33457)
(-0.99557 -2.5 3.33457)
(-0.978335 2.5 3.32675)
(-0.978335 -2.5 3.32675)
(-0.961251 2.5 3.31861)
(-0.961251 -2.5 3.31861)
(-0.944324 2.5 3.31015)
(-0.944324 -2.5 3.31015)
(-0.92756 2.5 3.30136)
(-0.92756 -2.5 3.30136)
(-0.910966 2.5 3.29226)
(-0.910966 -2.5 3.29226)
(-0.894547 2.5 3.28285)
(-0.894547 -2.5 3.28285)
(-0.878308 2.5 3.27313)
(-0.878308 -2.5 3.27313)
(-0.862257 2.5 3.26311)
(-0.862257 -2.5 3.26311)
(-0.846398 2.5 3.25278)
(-0.846398 -2.5 3.25278)
(-0.830738 2.5 3.24216)
(-0.830738 -2.5 3.24216)
(-0.815281 2.5 3.23124)
(-0.815281 -2.5 3.23124)
(-0.800034 2.5 3.22003)
(-0.800034 -2.5 3.22003)
(-0.785002 2.5 3.20853)
(-0.785002 -2.5 3.20853)
(-0.770189 2.5 3.19675)
(-0.770189 -2.5 3.19675)
(-0.755603 2.5 3.18469)
(-0.755603 -2.5 3.18469)
(-0.741247 2.5 3.17236)
(-0.741247 -2.5 3.17236)
(-0.727127 2.5 3.15976)
(-0.727127 -2.5 3.15976)
(-0.713249 2.5 3.14689)
(-0.713249 -2.5 3.14689)
(-0.699616 2.5 3.13377)
(-0.699616 -2.5 3.13377)
(-0.686234 2.5 3.12038)
(-0.686234 -2.5 3.12038)
(-0.673108 2.5 3.10675)
(-0.673108 -2.5 3.10675)
(-0.660242 2.5 3.09287)
(-0.660242 -2.5 3.09287)
(-0.647641 2.5 3.07875)
(-0.647641 -2.5 3.07875)
(-0.635309 2.5 3.0644)
(-0.635309 -2.5 3.0644)
(-0.623251 2.5 3.04981)
(-0.623251 -2.5 3.04981)
(-0.611472 2.5 3.035)
(-0.611472 -2.5 3.035)
(-0.599975 2.5 3.01997)
(-0.599975 -2.5 3.01997)
(-0.588764 2.5 3.00472)
(-0.588764 -2.5 3.00472)
(-0.577844 2.5 2.98926)
(-0.577844 -2.5 2.98926)
(-0.567218 2.5 2.9736)
(-0.567218 -2.5 2.9736)
(-0.556891 2.5 2.95774)
(-0.556891 -2.5 2.95774)
(-0.546866 2.5 2.94169)
(-0.546866 -2.5 2.94169)
(-0.537146 2.5 2.92545)
(-0.537146 -2.5 2.92545)
(-0.527735 2.5 2.90903)
(-0.527735 -2.5 2.90903)
(-0.518637 2.5 2.89244)
(-0.518637 -2.5 2.89244)
(-0.509854 2.5 2.87568)
(-0.509854 -2.5 2.87568)
(-0.50139 2.5 2.85875)
(-0.50139 -2.5 2.85875)
(-0.493248 2.5 2.84167)
(-0.493248 -2.5 2.84167)
(-0.485431 2.5 2.82443)
(-0.485431 -2.5 2.82443)
(-0.477941 2.5 2.80705)
(-0.477941 -2.5 2.80705)
(-0.470782 2.5 2.78953)
(-0.470782 -2.5 2.78953)
(-0.463955 2.5 2.77188)
(-0.463955 -2.5 2.77188)
(-0.457464 2.5 2.7541)
(-0.457464 -2.5 2.7541)
(-0.45131 2.5 2.73621)
(-0.45131 -2.5 2.73621)
(-0.445496 2.5 2.7182)
(-0.445496 -2.5 2.7182)
(-0.440024 2.5 2.70008)
(-0.440024 -2.5 2.70008)
(-0.434895 2.5 2.68186)
(-0.434895 -2.5 2.68186)
(-0.430113 2.5 2.66355)
(-0.430113 -2.5 2.66355)
(-0.425677 2.5 2.64516)
(-0.425677 -2.5 2.64516)
(-0.421591 2.5 2.62668)
(-0.421591 -2.5 2.62668)
(-0.417855 2.5 2.60812)
(-0.417855 -2.5 2.60812)
(-0.414471 2.5 2.5895)
(-0.414471 -2.5 2.5895)
(-0.411439 2.5 2.57082)
(-0.411439 -2.5 2.57082)
(-0.408762 2.5 2.55209)
(-0.408762 -2.5 2.55209)
(-0.40644 2.5 2.53331)
(-0.40644 -2.5 2.53331)
(-0.404474 2.5 2.51449)
(-0.404474 -2.5 2.51449)
(-0.402864 2.5 2.49563)
(-0.402864 -2.5 2.49563)
(-0.401611 2.5 2.47675)
(-0.401611 -2.5 2.47675)
(-0.400716 2.5 2.45784)
(-0.400716 -2.5 2.45784)
(-0.400179 2.5 2.43892)
(-0.400179 -2.5 2.43892)
)


// edges:

664
(
(0 1)
(2 3)
(4 0)
(3 5)
(6 4)
(5 7)
(8 6)
(7 9)
(10 8)
(9 11)
(12 10)
(11 13)
(14 12)
(13 15)
(16 14)
(15 17)
(18 16)
(17 19)
(20 18)
(19 21)
(22 20)
(21 23)
(24 22)
(23 25)
(26 24)
(25 27)
(28 26)
(27 29)
(30 28)
(29 31)
(32 30)
(31 33)
(34 32)
(33 35)
(36 34)
(35 37)
(38 36)
(37 39)
(40 38)
(39 41)
(42 40)
(41 43)
(44 42)
(43 45)
(46 44)
(45 47)
(48 46)
(47 49)
(50 48)
(49 51)
(52 50)
(51 53)
(54 52)
(53 55)
(56 54)
(55 57)
(58 56)
(57 59)
(60 58)
(59 61)
(62 60)
(61 63)
(64 62)
(63 65)
(66 64)
(65 67)
(68 66)
(67 69)
(70 68)
(69 71)
(72 70)
(71 73)
(74 72)
(73 75)
(76 74)
(75 77)
(78 76)
(77 79)
(80 78)
(79 81)
(82 80)
(81 83)
(84 82)
(83 85)
(86 84)
(85 87)
(88 86)
(87 89)
(90 88)
(89 91)
(92 90)
(91 93)
(94 92)
(93 95)
(96 94)
(95 97)
(98 96)
(97 99)
(100 98)
(99 101)
(102 100)
(101 103)
(104 102)
(103 105)
(106 104)
(105 107)
(108 106)
(107 109)
(110 108)
(109 111)
(112 110)
(111 113)
(114 112)
(113 115)
(116 114)
(115 117)
(118 116)
(117 119)
(120 118)
(119 121)
(122 120)
(121 123)
(124 122)
(123 125)
(126 124)
(125 127)
(128 126)
(127 129)
(130 128)
(129 131)
(132 130)
(131 133)
(134 132)
(133 135)
(136 134)
(135 137)
(138 136)
(137 139)
(140 138)
(139 141)
(142 140)
(141 143)
(144 142)
(143 145)
(146 144)
(145 147)
(148 146)
(147 149)
(150 148)
(149 151)
(152 150)
(151 153)
(154 152)
(153 155)
(156 154)
(155 157)
(158 156)
(157 159)
(160 158)
(159 161)
(162 160)
(161 163)
(164 162)
(163 165)
(166 164)
(165 167)
(168 166)
(167 169)
(170 168)
(169 171)
(172 170)
(171 173)
(174 172)
(173 175)
(176 174)
(175 177)
(178 176)
(177 179)
(180 178)
(179 181)
(182 180)
(181 183)
(184 182)
(183 185)
(186 184)
(185 187)
(188 186)
(187 189)
(190 188)
(189 191)
(192 190)
(191 193)
(194 192)
(193 195)
(196 194)
(195 197)
(198 196)
(197 199)
(200 198)
(199 201)
(202 200)
(201 203)
(204 202)
(203 205)
(206 204)
(205 207)
(208 206)
(207 209)
(210 208)
(209 211)
(212 210)
(211 213)
(214 212)
(213 215)
(216 214)
(215 217)
(218 216)
(217 219)
(220 218)
(219 221)
(222 220)
(221 223)
(224 222)
(223 225)
(226 224)
(225 227)
(228 226)
(227 229)
(230 228)
(229 231)
(232 230)
(231 233)
(234 232)
(233 235)
(236 234)
(235 237)
(238 236)
(237 239)
(240 238)
(239 241)
(242 240)
(241 243)
(244 242)
(243 245)
(246 244)
(245 247)
(248 246)
(247 249)
(250 248)
(249 251)
(252 250)
(251 253)
(254 252)
(253 255)
(256 254)
(255 257)
(258 256)
(257 259)
(260 258)
(259 261)
(262 260)
(261 263)
(264 262)
(263 265)
(266 264)
(265 267)
(268 266)
(267 269)
(270 268)
(269 271)
(272 270)
(271 273)
(274 272)
(273 275)
(276 274)
(275 277)
(278 276)
(277 279)
(280 278)
(279 281)
(282 280)
(281 283)
(284 282)
(283 285)
(286 284)
(285 287)
(288 286)
(287 289)
(290 288)
(289 291)
(292 290)
(291 293)
(294 292)
(293 295)
(296 294)
(295 297)
(298 296)
(297 299)
(300 298)
(299 301)
(302 300)
(301 303)
(304 302)
(303 305)
(306 304)
(305 307)
(308 306)
(307 309)
(310 308)
(309 311)
(312 310)
(311 313)
(314 312)
(313 315)
(316 314)
(315 317)
(318 316)
(317 319)
(320 318)
(319 321)
(322 320)
(321 323)
(324 322)
(323 325)
(326 324)
(325 327)
(328 326)
(327 329)
(330 328)
(329 331)
(332 330)
(331 333)
(334 332)
(333 335)
(336 334)
(335 337)
(338 336)
(337 339)
(340 338)
(339 341)
(342 340)
(341 343)
(344 342)
(343 345)
(346 344)
(345 347)
(348 346)
(347 349)
(350 348)
(349 351)
(352 350)
(351 353)
(354 352)
(353 355)
(356 354)
(355 357)
(358 356)
(357 359)
(360 358)
(359 361)
(362 360)
(361 363)
(364 362)
(363 365)
(366 364)
(365 367)
(368 366)
(367 369)
(370 368)
(369 371)
(372 370)
(371 373)
(374 372)
(373 375)
(376 374)
(375 377)
(378 376)
(377 379)
(380 378)
(379 381)
(382 380)
(381 383)
(384 382)
(383 385)
(386 384)
(385 387)
(388 386)
(387 389)
(390 388)
(389 391)
(392 390)
(391 393)
(394 392)
(393 395)
(396 394)
(395 397)
(398 396)
(397 399)
(400 398)
(399 401)
(402 400)
(401 403)
(404 402)
(403 405)
(406 404)
(405 407)
(408 406)
(407 409)
(410 408)
(409 411)
(412 410)
(411 413)
(414 412)
(413 415)
(416 414)
(415 417)
(418 416)
(417 419)
(420 418)
(419 421)
(422 420)
(421 423)
(424 422)
(423 425)
(426 424)
(425 427)
(428 426)
(427 429)
(430 428)
(429 431)
(432 430)
(431 433)
(434 432)
(433 435)
(436 434)
(435 437)
(438 436)
(437 439)
(440 438)
(439 441)
(442 440)
(441 443)
(444 442)
(443 445)
(446 444)
(445 447)
(448 446)
(447 449)
(450 448)
(449 451)
(452 450)
(451 453)
(454 452)
(453 455)
(456 454)
(455 457)
(458 456)
(457 459)
(460 458)
(459 461)
(462 460)
(461 463)
(464 462)
(463 465)
(466 464)
(465 467)
(468 466)
(467 469)
(470 468)
(469 471)
(472 470)
(471 473)
(474 472)
(473 475)
(476 474)
(475 477)
(478 476)
(477 479)
(480 478)
(479 481)
(482 480)
(481 483)
(484 482)
(483 485)
(486 484)
(485 487)
(488 486)
(487 489)
(490 488)
(489 491)
(492 490)
(491 493)
(494 492)
(493 495)
(496 494)
(495 497)
(498 496)
(497 499)
(500 498)
(499 501)
(502 500)
(501 503)
(504 502)
(503 505)
(506 504)
(505 507)
(508 506)
(507 509)
(510 508)
(509 511)
(512 510)
(511 513)
(514 512)
(513 515)
(516 514)
(515 517)
(518 516)
(517 519)
(520 518)
(519 521)
(522 520)
(521 523)
(524 522)
(523 525)
(526 524)
(525 527)
(528 526)
(527 529)
(530 528)
(529 531)
(532 530)
(531 533)
(534 532)
(533 535)
(536 534)
(535 537)
(538 536)
(537 539)
(540 538)
(539 541)
(542 540)
(541 543)
(544 542)
(543 545)
(546 544)
(545 547)
(548 546)
(547 549)
(550 548)
(549 551)
(552 550)
(551 553)
(554 552)
(553 555)
(556 554)
(555 557)
(558 556)
(557 559)
(560 558)
(559 561)
(562 560)
(561 563)
(564 562)
(563 565)
(566 564)
(565 567)
(568 566)
(567 569)
(570 568)
(569 571)
(572 570)
(571 573)
(574 572)
(573 575)
(576 574)
(575 577)
(578 576)
(577 579)
(580 578)
(579 581)
(582 580)
(581 583)
(584 582)
(583 585)
(586 584)
(585 587)
(588 586)
(587 589)
(590 588)
(589 591)
(592 590)
(591 593)
(594 592)
(593 595)
(596 594)
(595 597)
(598 596)
(597 599)
(600 598)
(599 601)
(602 600)
(601 603)
(604 602)
(603 605)
(606 604)
(605 607)
(608 606)
(607 609)
(610 608)
(609 611)
(612 610)
(611 613)
(614 612)
(613 615)
(616 614)
(615 617)
(618 616)
(617 619)
(620 618)
(619 621)
(622 620)
(621 623)
(624 622)
(623 625)
(626 624)
(625 627)
(628 626)
(627 629)
(630 628)
(629 631)
(632 630)
(631 633)
(634 632)
(633 635)
(636 634)
(635 637)
(638 636)
(637 639)
(640 638)
(639 641)
(642 640)
(641 643)
(644 642)
(643 645)
(646 644)
(645 647)
(648 646)
(647 649)
(650 648)
(649 651)
(652 650)
(651 653)
(654 652)
(653 655)
(656 654)
(655 657)
(658 656)
(657 659)
(660 658)
(659 661)
(662 660)
(661 663)
(1 662)
(663 2)
)

// * * * * * * * * * * * * * * * * * * * * * * * * * * * * * * * * * * * * * //


// ************************************************************************* //
