/*--------------------------------*- C++ -*----------------------------------*\
  =========                 |
  \\      /  F ield         | OpenFOAM: The Open Source CFD Toolbox
   \\    /   O peration     | Website:  https://openfoam.org
    \\  /    A nd           | Version:  6
     \\/     M anipulation  |
\*---------------------------------------------------------------------------*/
FoamFile
{
    version     2.0;
    format      ascii;
    class       volScalarField;
    location    "0.1";
    object      alphat;
}
// * * * * * * * * * * * * * * * * * * * * * * * * * * * * * * * * * * * * * //

dimensions      [1 -1 -1 0 0 0 0];

internalField   uniform 0;

boundaryField
{
    sidey_plus
    {
        type            cyclicAMI;
    }

    sidey_minus
    {
        type            cyclicAMI;
    }

    sidex_plus
    {
        type            cyclicAMI;
    }

    sidex_minus
    {
        type            cyclicAMI;
    }

    

    front
    {
        type            cyclicAMI;

    }


    back
    {
        type            cyclicAMI;

    }


    cylinderWalls
    {
        type            compressible::alphatJayatillekeWallFunction;
        Prt             0.031;
        value           uniform 1e-20;
    }

}


// ************************************************************************* //
